Version 4
SHEET 1 1780 792
WIRE 256 -752 240 -752
WIRE 1776 -752 256 -752
WIRE 208 -288 -48 -288
WIRE 256 -288 256 -752
WIRE 256 -288 208 -288
WIRE 928 -288 256 -288
WIRE 1152 -192 1088 -192
WIRE 208 -176 208 -288
WIRE 208 -176 96 -176
WIRE 320 -176 208 -176
WIRE 320 -144 320 -176
WIRE -48 -112 -48 -288
WIRE 928 -80 928 -288
WIRE 320 -16 320 -64
WIRE 96 0 96 -176
WIRE 656 32 448 32
WIRE 928 32 928 0
WIRE 1008 32 928 32
WIRE 1056 32 1008 32
WIRE 1200 32 1136 32
WIRE -48 48 -48 -32
WIRE 928 64 928 32
WIRE 96 96 96 64
WIRE 656 96 656 32
WIRE 656 96 560 96
WIRE 736 96 656 96
WIRE 320 144 320 64
WIRE 560 144 560 96
WIRE 736 144 736 96
WIRE 928 176 928 144
WIRE 1088 176 1088 -192
WIRE 1104 176 1088 176
WIRE 96 192 96 160
WIRE 256 192 96 192
WIRE 1104 208 1104 176
WIRE 1008 224 1008 32
WIRE 1072 224 1008 224
WIRE 448 240 448 32
WIRE 448 240 320 240
WIRE 1200 240 1200 32
WIRE 1200 240 1136 240
WIRE 96 256 96 192
WIRE 1072 256 992 256
WIRE 560 272 560 208
WIRE 560 272 496 272
WIRE 736 272 736 208
WIRE 928 272 736 272
WIRE 992 272 992 256
WIRE 992 272 928 272
WIRE 448 320 320 320
WIRE 560 320 560 272
WIRE 736 320 736 272
WIRE 96 368 96 336
WIRE 256 368 96 368
WIRE 96 432 96 368
WIRE 560 432 560 384
WIRE 656 432 560 432
WIRE 736 432 736 384
WIRE 736 432 656 432
WIRE 928 432 928 336
WIRE 320 480 320 416
WIRE 448 496 448 320
WIRE 656 496 656 432
WIRE 656 496 448 496
WIRE 96 544 96 496
WIRE 496 592 496 272
WIRE 1200 592 1200 240
WIRE 1200 592 496 592
WIRE 1776 592 1776 -752
WIRE 1776 592 1312 592
WIRE 320 640 320 560
WIRE 1104 640 1104 272
WIRE 1312 640 1312 592
WIRE 1312 640 1104 640
WIRE 96 752 96 608
WIRE 320 752 320 720
FLAG 96 752 0
FLAG 320 752 0
FLAG 928 432 0
FLAG 928 176 0
FLAG -48 48 0
FLAG 1152 -192 0
SYMBOL res 80 240 R0
SYMATTR InstName R1
SYMATTR Value 1.5k
SYMBOL npn 256 320 R0
SYMATTR InstName Q1
SYMBOL pnp 256 240 M180
SYMATTR InstName Q2
SYMBOL res 304 464 R0
SYMATTR InstName R2
SYMATTR Value 100
SYMBOL res 304 624 R0
SYMATTR InstName pot2_10k
SYMATTR Value 1.5k
SYMBOL res 304 -32 R0
SYMATTR InstName R5
SYMATTR Value 100
SYMBOL res 304 -160 R0
SYMATTR InstName pot1_10k
SYMATTR Value 1.5k
SYMBOL cap 912 272 R0
SYMATTR InstName C1
SYMATTR Value 1µF
SYMBOL OpAmps\\OP07 1104 304 M180
SYMATTR InstName U1
SYMBOL res 912 -96 R0
SYMATTR InstName R4
SYMATTR Value 5.9k
SYMBOL res 912 48 R0
SYMATTR InstName R7
SYMATTR Value 3.9k
SYMBOL res 1152 16 R90
WINDOW 0 0 56 VBottom 2
WINDOW 3 32 56 VTop 2
SYMATTR InstName pot3_100k
SYMATTR Value 20k
SYMBOL diode 544 144 R0
SYMATTR InstName D5
SYMATTR Value 1N4148
SYMBOL diode 544 320 R0
SYMATTR InstName D6
SYMATTR Value 1N4148
SYMBOL diode 720 320 R0
SYMATTR InstName D1
SYMATTR Value 1N4148
SYMBOL diode 720 144 R0
SYMATTR InstName D2
SYMATTR Value 1N4148
SYMBOL diode 80 544 R0
SYMATTR InstName D3
SYMATTR Value 1N4148
SYMBOL diode 80 432 R0
SYMATTR InstName D4
SYMATTR Value 1N4148
SYMBOL diode 80 96 R0
SYMATTR InstName D7
SYMATTR Value 1N4148
SYMBOL diode 80 0 R0
SYMATTR InstName D8
SYMATTR Value 1N4148
SYMBOL voltage -48 -128 R0
WINDOW 123 0 0 Left 0
WINDOW 39 0 0 Left 0
WINDOW 3 24 44 Left 2
SYMATTR Value 12
SYMATTR InstName V1
TEXT -80 776 Left 2 !.tran 0 100m 1m
